VERSION 17
*******************************************************************************
*** TRNSYS input file (deck) generated by TrnsysStudio
*** on Sunday, February 13, 2011 at 12:25
*** from TrnsysStudio project: C:\Doktorat\Phase2\DCK\Begin.tpf
*** 
*** If you edit this file, use the File/Import TRNSYS Input File function in 
*** TrnsysStudio to update the project. 
*** 
*** If you have problems, questions or suggestions please contact your local 
*** TRNSYS distributor or mailto:software@cstb.fr 
*** 
*******************************************************************************


*******************************************************************************
*** Units 
*******************************************************************************

*******************************************************************************
*** Control cards
*******************************************************************************
* MyValue, MyValue and STEP
CONSTANTS 3
MyValue=0
MyValue=24000.000628643
STEP=1
* User defined CONSTANTS 

SIMULATION 	 MyValue	 MyValue	 STEP	! Start time	End time	Time step
TOLERANCES 0.001 0.001			! Integration	 Convergence
LIMITS 30 30 30				! Max iterations	Max warnings	Trace limit
DFQ 1					! TRNSYS numerical integration solver method
WIDTH 80				! TRNSYS output file width, number of characters
LIST 					! NOLIST statement
					! MAP statement
SOLVER 0 1 1				! Solver statement	Minimum relaxation factor	Maximum relaxation factor
NAN_CHECK 0				! Nan DEBUG statement
OVERWRITE_CHECK 0			! Overwrite DEBUG statement
TIME_REPORT 0			! disable time report
EQSOLVER 0				! EQUATION SOLVER statement

* Model "Type3b" (Type 3)
* 

UNIT 3 TYPE 3	 Type3b
*$UNIT_NAME Type3b
*$MODEL .\Hydronics\Pumps\Single Speed\Type3b.tmf
*$POSITION 56 192
*$LAYER Water Loop # 
PARAMETERS 5
50		! 1 Maximum flow rate
4.19		! 2 Fluid specific heat
60		! 3 Maximum power
0.05		! 4 Conversion coefficient
0.5		! 5 Power coefficient
INPUTS 3
0,0		! [unconnected] Inlet fluid temperature
0,0		! [unconnected] Inlet mass flow rate
9,1 		! Type14h:Average value of function ->Control signal
*** INITIAL INPUT VALUES
20 40 1 
*------------------------------------------------------------------------------

* Model "Type1b" (Type 1)
* 

UNIT 4 TYPE 1	 Type1b
*$UNIT_NAME Type1b
*$MODEL .\Solar Thermal Collectors\Quadratic Efficiency Collector\2nd-Order Incidence Angle Modifiers\Type1b.tmf
*$POSITION 205 192
*$LAYER Main # 
PARAMETERS 11
1		! 1 Number in series
2		! 2 Collector area
4.190		! 3 Fluid specific heat
1		! 4 Efficiency mode
40.0		! 5 Tested flow rate
0.80		! 6 Intercept efficiency
13.0		! 7 Efficiency slope
0.05		! 8 Efficiency curvature
2		! 9 Optical mode 2
0.2		! 10 1st-order IAM
0.0		! 11 2nd-order IAM
INPUTS 9
3,1 		! Type3b:Outlet fluid temperature ->Inlet temperature
3,2 		! Type3b:Outlet flow rate ->Inlet flowrate
10,1 		! Type15-2:Dry bulb temperature ->Ambient temperature
10,24 		! Type15-2:Total tilted surface radiation for surface ->Incident radiation
10,18 		! Type15-2:Total horizontal radiation ->Total horizontal radiation
10,20 		! Type15-2:Sky diffuse radiation on the horizontal ->Horizontal diffuse radiation
10,59 		! Type15-2:Ground reflectance ->Ground reflectance
10,29 		! Type15-2:Angle of incidence for surface ->Incidence angle
10,30 		! Type15-2:Slope of surface ->Collector slope
*** INITIAL INPUT VALUES
20.0 100.0 10.0 0. 0.0 0.0 0.2 45.0 0. 
*------------------------------------------------------------------------------

* Model "Type6" (Type 6)
* 

UNIT 5 TYPE 6	 Type6
*$UNIT_NAME Type6
*$MODEL .\HVAC\Auxiliary Heaters\Type6.tmf
*$POSITION 340 192
*$LAYER Water Loop # 
PARAMETERS 4
5000		! 1 Maximum heating rate
4.19		! 2 Specific heat of fluid
0		! 3 Overall loss coefficient for heater during operation
1		! 4 Efficiency of auxiliary heater
INPUTS 5
4,1 		! Type1b:Outlet temperature ->Inlet fluid temperature
4,2 		! Type1b:Outlet flowrate ->Fluid mass flow rate
0,0		! [unconnected] Control Function
0,0		! [unconnected] Set point temperature
0,0		! [unconnected] Temperature of surroundings
*** INITIAL INPUT VALUES
20 100 1 60 20 
*------------------------------------------------------------------------------

* Model "TYPE24" (Type 24)
* 

UNIT 6 TYPE 24	 TYPE24
*$UNIT_NAME TYPE24
*$MODEL .\Utility\Integrators\Quantity Integrator\TYPE24.tmf
*$POSITION 503 212
*$LAYER Main # 
PARAMETERS 2
MyValue		! 1 Integration period
0		! 2 Relative or absolute start time
INPUTS 2
4,3 		! Type1b:Useful energy gain ->Input to be integrated-1
5,3 		! Type6:Required heating rate ->Input to be integrated-2
*** INITIAL INPUT VALUES
0.0 0.0 
*------------------------------------------------------------------------------

* Model "Type25c" (Type 25)
* 

UNIT 7 TYPE 25	 Type25c
*$UNIT_NAME Type25c
*$MODEL .\Output\Printer\Unformatted\No Units\Type25c.tmf
*$POSITION 643 212
*$LAYER Outputs # 
PARAMETERS 10
STEP		! 1 Printing interval
MyValue		! 2 Start time
MyValue		! 3 Stop time
36		! 4 Logical unit
0		! 5 Units printing mode
0		! 6 Relative or absolute start time
-1		! 7 Overwrite or Append
-1		! 8 Print header
0		! 9 Delimiter
1		! 10 Print labels
INPUTS 2
6,1 		! TYPE24:Result of integration-1 ->Input to be printed-1
6,2 		! TYPE24:Result of integration-2 ->Input to be printed-2
*** INITIAL INPUT VALUES
QColl QAux 
*** External files
ASSIGN "C:\Doktorat\Phase2\OUT\output.out" 36
*|? Output file for printed results |1000
*------------------------------------------------------------------------------

* Model "Type65d" (Type 65)
* 

UNIT 8 TYPE 65	 Type65d
*$UNIT_NAME Type65d
*$MODEL .\Output\Online Plotter\Online Plotter Without File\Type65d.tmf
*$POSITION 506 85
*$LAYER Main # 
PARAMETERS 12
3		! 1 Nb. of left-axis variables
2		! 2 Nb. of right-axis variables
-100		! 3 Left axis minimum
100		! 4 Left axis maximum
0.0		! 5 Right axis minimum
10000		! 6 Right axis maximum
1		! 7 Number of plots per simulation
12		! 8 X-axis gridpoints
0		! 9 Shut off Online w/o removing
-1		! 10 Logical unit for output file
0		! 11 Output file units
0		! 12 Output file delimiter
INPUTS 5
3,1 		! Type3b:Outlet fluid temperature ->Left axis variable-1
4,1 		! Type1b:Outlet temperature ->Left axis variable-2
5,1 		! Type6:Outlet fluid temperature ->Left axis variable-3
4,3 		! Type1b:Useful energy gain ->Right axis variable-1
5,3 		! Type6:Required heating rate ->Right axis variable-2
*** INITIAL INPUT VALUES
ToPump ToColl ToAux QColl QAux 
LABELS  3
"Temperatures"
"Heat transfer rates"
"Graph 1"
*------------------------------------------------------------------------------

* Model "Type14h" (Type 14)
* 

UNIT 9 TYPE 14	 Type14h
*$UNIT_NAME Type14h
*$MODEL .\Utility\Forcing Functions\General\Type14h.tmf
*$POSITION 54 288
*$LAYER Main # 
PARAMETERS 12
0		! 1 Initial value of time
0		! 2 Initial value of function
8		! 3 Time at point-1
0		! 4 Value at point -1
8		! 5 Time at point-2
1		! 6 Value at point -2
18		! 7 Time at point-3
1		! 8 Value at point -3
18		! 9 Time at point-4
0		! 10 Value at point -4
24		! 11 Time at point-5
0		! 12 Value at point -5
*------------------------------------------------------------------------------

* Model "Type15-2" (Type 15)
* 

UNIT 10 TYPE 15	 Type15-2
*$UNIT_NAME Type15-2
*$MODEL .\Weather Data Reading and Processing\Standard Format\TMY2\Type15-2.tmf
*$POSITION 120 104
*$LAYER Weather - Data Files # 
PARAMETERS 9
2		! 1 File Type
37		! 2 Logical unit
3		! 3 Tilted Surface Radiation Mode
.2		! 4 Ground reflectance - no snow
.7		! 5 Ground reflectance - snow cover
1		! 6 Number of surfaces
1		! 7 Tracking mode
45		! 8 Slope of surface
0		! 9 Azimuth of surface
*** External files
ASSIGN "..\WEA\BF-Ouagadougou-655030.tm2" 37
*|? Which file contains the TMY-2 weather data? |1000
*------------------------------------------------------------------------------

END
